24
Vibration 1
O 2.39042284 0.00161824 -2.27137352
O 3.5445436 0.0014898 0.25919088
S 2.15966296 -0.0009568 -0.64343656
H 0.15341768 -1.3516516 -2.03951384
H 0.14383408 1.34701944 -2.05481276
H -4.28099568 -0.87530092 0.15964936
H -4.28188436 0.87136764 0.16074916
H -4.4909228 -0.00059436 -1.3412386
Cl -0.40826344 1.5512562 2.32651328
Cl -0.408213 -1.54984856 2.32648312
Cl 1.11024732 -2.86207012 -0.23382996
Cl 1.11105332 2.86427908 -0.23455796
C 0.3414658 0.74516 1.09808816
C 0.3400982 -0.74035416 1.09776212
C 1.02554348 -1.30222716 0.1779258
C -0.6539572 -0.61884212 -1.69481156
C -0.66930084 0.617188 -1.71299024
C 1.02104548 1.31394016 0.17623424
N -2.5424152 -0.00890604 -0.50806288
C -1.856777 1.15165388 -1.02660584
O -2.26203432 2.2640566 -0.95181632
C -1.85175276 -1.15776804 -1.0279256
O -2.259751 -2.2695114 -0.95444752
C -3.97480824 -0.00158236 -0.39217724
24
Vibration 1
O 2.391161448 0.001452724 -2.27123104
O 3.544197228 0.001209624 0.259264668
S 2.160647996 -0.000873964 -0.643700512
H 0.142042056 -1.346625488 -2.0560995
H 0.133409796 1.342501264 -2.069847936
H -4.28037246 -0.875090528 0.159677804
H -4.281189172 0.87152208 0.16066102
H -4.491709456 -0.000557336 -1.341097212
Cl -0.407661384 1.551389112 2.3265398
Cl -0.40761604 -1.550063372 2.326536108
Cl 1.110188508 -2.861908452 -0.233556648
Cl 1.110967468 2.863914768 -0.234219648
C 0.339699984 0.740522432 1.099733284
C 0.338452868 -0.736158488 1.099441148
C 1.01077522 -1.298934416 0.162409156
C -0.642236036 -0.625112436 -1.679610868
C -0.656052644 0.623652588 -1.695967208
C 1.006776004 1.309499152 0.16089606
N -2.5424503 -0.008016528 -0.511318288
C -1.85475498 1.152222344 -1.025787828
O -2.26217394 2.26397652 -0.95241588
C -1.850219332 -1.157715936 -1.026980448
O -2.260086244 -2.268883812 -0.954786352
C -3.974690408 -0.001437436 -0.392563756
24
Vibration 1
O 2.391900056 0.001287208 -2.27108856
O 3.543850856 0.000929448 0.259338456
S 2.161633032 -0.000791128 -0.643964464
H 0.130666432 -1.341599376 -2.07268516
H 0.122985512 1.337983088 -2.084883112
H -4.27974924 -0.874880136 0.159706248
H -4.280493984 0.87167652 0.16057288
H -4.492496112 -0.000520312 -1.340955824
Cl -0.407059328 1.551522024 2.32656632
Cl -0.40701908 -1.550278184 2.326589096
Cl 1.110129696 -2.861746784 -0.233283336
Cl 1.110881616 2.863550456 -0.233881336
C 0.337934168 0.735884864 1.101378408
C 0.336807536 -0.731962816 1.101120176
C 0.99600696 -1.295641672 0.146892512
C -0.630514872 -0.631382752 -1.664410176
C -0.642804448 0.630117176 -1.678944176
C 0.992506528 1.305058144 0.14555788
N -2.5424854 -0.007127016 -0.514573696
C -1.85273296 1.152790808 -1.024969816
O -2.26231356 2.26389644 -0.95301544
C -1.848685904 -1.157663832 -1.026035296
O -2.260421488 -2.268256224 -0.955125184
C -3.974572576 -0.001292512 -0.392950272
24
Vibration 1
O 2.392638664 0.001121692 -2.27094608
O 3.543504484 0.000649272 0.259412244
S 2.162618068 -0.000708292 -0.644228416
H 0.119290808 -1.336573264 -2.08927082
H 0.112561228 1.333464912 -2.099918288
H -4.27912602 -0.874669744 0.159734692
H -4.279798796 0.87183096 0.16048474
H -4.493282768 -0.000483288 -1.340814436
Cl -0.406457272 1.551654936 2.32659284
Cl -0.40642212 -1.550492996 2.326642084
Cl 1.110070884 -2.861585116 -0.233010024
Cl 1.110795764 2.863186144 -0.233543024
C 0.336168352 0.731247296 1.103023532
C 0.335162204 -0.727767144 1.102799204
C 0.9812387 -1.292348928 0.131375868
C -0.618793708 -0.637653068 -1.649209484
C -0.629556252 0.636581764 -1.661921144
C 0.978237052 1.300617136 0.1302197
N -2.5425205 -0.006237504 -0.517829104
C -1.85071094 1.153359272 -1.024151804
O -2.26245318 2.26381636 -0.953615
C -1.847152476 -1.157611728 -1.025090144
O -2.260756732 -2.267628636 -0.955464016
C -3.974454744 -0.001147588 -0.393336788
24
Vibration 1
O 2.393377272 0.000956176 -2.2708036
O 3.543158112 0.000369096 0.259486032
S 2.163603104 -0.000625456 -0.644492368
H 0.107915184 -1.331547152 -2.10585648
H 0.102136944 1.328946736 -2.114953464
H -4.2785028 -0.874459352 0.159763136
H -4.279103608 0.8719854 0.1603966
H -4.494069424 -0.000446264 -1.340673048
Cl -0.405855216 1.551787848 2.32661936
Cl -0.40582516 -1.550707808 2.326695072
Cl 1.110012072 -2.861423448 -0.232736712
Cl 1.110709912 2.862821832 -0.233204712
C 0.334402536 0.726609728 1.104668656
C 0.333516872 -0.723571472 1.104478232
C 0.96647044 -1.289056184 0.115859224
C -0.607072544 -0.643923384 -1.634008792
C -0.616308056 0.643046352 -1.644898112
C 0.963967576 1.296176128 0.11488152
N -2.5425556 -0.005347992 -0.521084512
C -1.84868892 1.153927736 -1.023333792
O -2.2625928 2.26373628 -0.95421456
C -1.845619048 -1.157559624 -1.024144992
O -2.261091976 -2.267001048 -0.955802848
C -3.974336912 -0.001002664 -0.393723304
24
Vibration 1
O 2.39411588 0.00079066 -2.27066112
O 3.54281174 8.892e-05 0.25955982
S 2.16458814 -0.00054262 -0.64475632
H 0.09653956 -1.32652104 -2.12244214
H 0.09171266 1.32442856 -2.12998864
H -4.27787958 -0.87424896 0.15979158
H -4.27840842 0.87213984 0.16030846
H -4.49485608 -0.00040924 -1.34053166
Cl -0.40525316 1.55192076 2.32664588
Cl -0.4052282 -1.55092262 2.32674806
Cl 1.10995326 -2.86126178 -0.2324634
Cl 1.11062406 2.86245752 -0.2328664
C 0.33263672 0.72197216 1.10631378
C 0.33187154 -0.7193758 1.10615726
C 0.95170218 -1.28576344 0.10034258
C -0.59535138 -0.6501937 -1.6188081
C -0.60305986 0.64951094 -1.62787508
C 0.9496981 1.29173512 0.09954334
N -2.5425907 -0.00445848 -0.52433992
C -1.8466669 1.1544962 -1.02251578
O -2.26273242 2.2636562 -0.95481412
C -1.84408562 -1.15750752 -1.02319984
O -2.26142722 -2.26637346 -0.95614168
C -3.97421908 -0.00085774 -0.39410982
24
Vibration 1
O 2.394854488 0.000625144 -2.27051864
O 3.542465368 -0.000191256 0.259633608
S 2.165573176 -0.000459784 -0.645020272
H 0.085163936 -1.321494928 -2.1390278
H 0.081288376 1.319910384 -2.145023816
H -4.27725636 -0.874038568 0.159820024
H -4.277713232 0.87229428 0.16022032
H -4.495642736 -0.000372216 -1.340390272
Cl -0.404651104 1.552053672 2.3266724
Cl -0.40463124 -1.551137432 2.326801048
Cl 1.109894448 -2.861100112 -0.232190088
Cl 1.110538208 2.862093208 -0.232528088
C 0.330870904 0.717334592 1.107958904
C 0.330226208 -0.715180128 1.107836288
C 0.93693392 -1.282470696 0.084825936
C -0.583630216 -0.656464016 -1.603607408
C -0.589811664 0.655975528 -1.610852048
C 0.935428624 1.287294112 0.08420516
N -2.5426258 -0.003568968 -0.527595328
C -1.84464488 1.155064664 -1.021697768
O -2.26287204 2.26357612 -0.95541368
C -1.842552192 -1.157455416 -1.022254688
O -2.261762464 -2.265745872 -0.956480512
C -3.974101248 -0.000712816 -0.394496336
24
Vibration 1
O 2.395593096 0.000459628 -2.27037616
O 3.542118996 -0.000471432 0.259707396
S 2.166558212 -0.000376948 -0.645284224
H 0.073788312 -1.316468816 -2.15561346
H 0.070864092 1.315392208 -2.160058992
H -4.27663314 -0.873828176 0.159848468
H -4.277018044 0.87244872 0.16013218
H -4.496429392 -0.000335192 -1.340248884
Cl -0.404049048 1.552186584 2.32669892
Cl -0.40403428 -1.551352244 2.326854036
Cl 1.109835636 -2.860938444 -0.231916776
Cl 1.110452356 2.861728896 -0.232189776
C 0.329105088 0.712697024 1.109604028
C 0.328580876 -0.710984456 1.109515316
C 0.92216566 -1.279177952 0.069309292
C -0.571909052 -0.662734332 -1.588406716
C -0.576563468 0.662440116 -1.593829016
C 0.921159148 1.282853104 0.06886698
N -2.5426609 -0.002679456 -0.530850736
C -1.84262286 1.155633128 -1.020879756
O -2.26301166 2.26349604 -0.95601324
C -1.841018764 -1.157403312 -1.021309536
O -2.262097708 -2.265118284 -0.956819344
C -3.973983416 -0.000567892 -0.394882852
24
Vibration 1
O 2.396331704 0.000294112 -2.27023368
O 3.541772624 -0.000751608 0.259781184
S 2.167543248 -0.000294112 -0.645548176
H 0.062412688 -1.311442704 -2.17219912
H 0.060439808 1.310874032 -2.175094168
H -4.27600992 -0.873617784 0.159876912
H -4.276322856 0.87260316 0.16004404
H -4.497216048 -0.000298168 -1.340107496
Cl -0.403446992 1.552319496 2.32672544
Cl -0.40343732 -1.551567056 2.326907024
Cl 1.109776824 -2.860776776 -0.231643464
Cl 1.110366504 2.861364584 -0.231851464
C 0.327339272 0.708059456 1.111249152
C 0.326935544 -0.706788784 1.111194344
C 0.9073974 -1.275885208 0.053792648
C -0.560187888 -0.669004648 -1.573206024
C -0.563315272 0.668904704 -1.576805984
C 0.906889672 1.278412096 0.0535288
N -2.542696 -0.001789944 -0.534106144
C -1.84060084 1.156201592 -1.020061744
O -2.26315128 2.26341596 -0.9566128
C -1.839485336 -1.157351208 -1.020364384
O -2.262432952 -2.264490696 -0.957158176
C -3.973865584 -0.000422968 -0.395269368
24
Vibration 1
O 2.397070312 0.000128596 -2.2700912
O 3.541426252 -0.001031784 0.259854972
S 2.168528284 -0.000211276 -0.645812128
H 0.051037064 -1.306416592 -2.18878478
H 0.050015524 1.306355856 -2.190129344
H -4.2753867 -0.873407392 0.159905356
H -4.275627668 0.8727576 0.1599559
H -4.498002704 -0.000261144 -1.339966108
Cl -0.402844936 1.552452408 2.32675196
Cl -0.40284036 -1.551781868 2.326960012
Cl 1.109718012 -2.860615108 -0.231370152
Cl 1.110280652 2.861000272 -0.231513152
C 0.325573456 0.703421888 1.112894276
C 0.325290212 -0.702593112 1.112873372
C 0.89262914 -1.272592464 0.038276004
C -0.548466724 -0.675274964 -1.558005332
C -0.550067076 0.675369292 -1.559782952
C 0.892620196 1.273971088 0.03819062
N -2.5427311 -0.000900432 -0.537361552
C -1.83857882 1.156770056 -1.019243732
O -2.2632909 2.26333588 -0.95721236
C -1.837951908 -1.157299104 -1.019419232
O -2.262768196 -2.263863108 -0.957497008
C -3.973747752 -0.000278044 -0.395655884
24
Vibration 1
O 2.39780892 -3.692e-05 -2.26994872
O 3.54107988 -0.00131196 0.25992876
S 2.16951332 -0.00012844 -0.64607608
H 0.03966144 -1.30139048 -2.20537044
H 0.03959124 1.30183768 -2.20516452
H -4.27476348 -0.873197 0.1599338
H -4.27493248 0.87291204 0.15986776
H -4.49878936 -0.00022412 -1.33982472
Cl -0.40224288 1.55258532 2.32677848
Cl -0.4022434 -1.55199668 2.327013
Cl 1.1096592 -2.86045344 -0.23109684
Cl 1.1101948 2.86063596 -0.23117484
C 0.32380764 0.69878432 1.1145394
C 0.32364488 -0.69839744 1.1145524
C 0.87786088 -1.26929972 0.02275936
C -0.53674556 -0.68154528 -1.54280464
C -0.53681888 0.68183388 -1.54275992
C 0.87835072 1.26953008 0.02285244
N -2.5427662 -1.092e-05 -0.54061696
C -1.8365568 1.15733852 -1.01842572
O -2.26343052 2.2632558 -0.95781192
C -1.83641848 -1.157247 -1.01847408
O -2.26310344 -2.26323552 -0.95783584
C -3.97362992 -0.00013312 -0.3960424
24
Vibration 1
O 2.398547528 -0.000202436 -2.26980624
O 3.540733508 -0.001592136 0.260002548
S 2.170498356 -4.5604e-05 -0.646340032
H 0.028285816 -1.296364368 -2.2219561
H 0.029166956 1.297319504 -2.220199696
H -4.27414026 -0.872986608 0.159962244
H -4.274237292 0.87306648 0.15977962
H -4.499576016 -0.000187096 -1.339683332
Cl -0.401640824 1.552718232 2.326805
Cl -0.40164644 -1.552211492 2.327065988
Cl 1.109600388 -2.860291772 -0.230823528
Cl 1.110108948 2.860271648 -0.230836528
C 0.322041824 0.694146752 1.116184524
C 0.321999548 -0.694201768 1.116231428
C 0.86309262 -1.266006976 0.007242716
C -0.525024396 -0.687815596 -1.527603948
C -0.523570684 0.688298468 -1.525736888
C 0.864081244 1.265089072 0.00751426
N -2.5428013 0.000878592 -0.543872368
C -1.83453478 1.157906984 -1.017607708
O -2.26357014 2.26317572 -0.95841148
C -1.834885052 -1.157194896 -1.017528928
O -2.263438684 -2.262607932 -0.958174672
C -3.973512088 1.1804e-05 -0.396428916
24
Vibration 1
O 2.399286136 -0.000367952 -2.26966376
O 3.540387136 -0.001872312 0.260076336
S 2.171483392 3.7232e-05 -0.646603984
H 0.016910192 -1.291338256 -2.23854176
H 0.018742672 1.292801328 -2.235234872
H -4.27351704 -0.872776216 0.159990688
H -4.273542104 0.87322092 0.15969148
H -4.500362672 -0.000150072 -1.339541944
Cl -0.401038768 1.552851144 2.32683152
Cl -0.40104948 -1.552426304 2.327118976
Cl 1.109541576 -2.860130104 -0.230550216
Cl 1.110023096 2.859907336 -0.230498216
C 0.320276008 0.689509184 1.117829648
C 0.320354216 -0.690006096 1.117910456
C 0.84832436 -1.262714232 -0.008273928
C -0.513303232 -0.694085912 -1.512403256
C -0.510322488 0.694763056 -1.508713856
C 0.849811768 1.260648064 -0.00782392
N -2.5428364 0.001768104 -0.547127776
C -1.83251276 1.158475448 -1.016789696
O -2.26370976 2.26309564 -0.95901104
C -1.833351624 -1.157142792 -1.016583776
O -2.263773928 -2.261980344 -0.958513504
C -3.973394256 0.000156728 -0.396815432
24
Vibration 1
O 2.400024744 -0.000533468 -2.26952128
O 3.540040764 -0.002152488 0.260150124
S 2.172468428 0.000120068 -0.646867936
H 0.005534568 -1.286312144 -2.25512742
H 0.008318388 1.288283152 -2.250270048
H -4.27289382 -0.872565824 0.160019132
H -4.272846916 0.87337536 0.15960334
H -4.501149328 -0.000113048 -1.339400556
Cl -0.400436712 1.552984056 2.32685804
Cl -0.40045252 -1.552641116 2.327171964
Cl 1.109482764 -2.859968436 -0.230276904
Cl 1.109937244 2.859543024 -0.230159904
C 0.318510192 0.684871616 1.119474772
C 0.318708884 -0.685810424 1.119589484
C 0.8335561 -1.259421488 -0.023790572
C -0.501582068 -0.700356228 -1.497202564
C -0.497074292 0.701227644 -1.491690824
C 0.835542292 1.256207056 -0.0231621
N -2.5428715 0.002657616 -0.550383184
C -1.83049074 1.159043912 -1.015971684
O -2.26384938 2.26301556 -0.9596106
C -1.831818196 -1.157090688 -1.015638624
O -2.264109172 -2.261352756 -0.958852336
C -3.973276424 0.000301652 -0.397201948
24
Vibration 1
O 2.400763352 -0.000698984 -2.2693788
O 3.539694392 -0.002432664 0.260223912
S 2.173453464 0.000202904 -0.647131888
H -0.005841056 -1.281286032 -2.27171308
H -0.002105896 1.283764976 -2.265305224
H -4.2722706 -0.872355432 0.160047576
H -4.272151728 0.8735298 0.1595152
H -4.501935984 -7.6024e-05 -1.339259168
Cl -0.399834656 1.553116968 2.32688456
Cl -0.39985556 -1.552855928 2.327224952
Cl 1.109423952 -2.859806768 -0.230003592
Cl 1.109851392 2.859178712 -0.229821592
C 0.316744376 0.680234048 1.121119896
C 0.317063552 -0.681614752 1.121268512
C 0.81878784 -1.256128744 -0.039307216
C -0.489860904 -0.706626544 -1.482001872
C -0.483826096 0.707692232 -1.474667792
C 0.821272816 1.251766048 -0.03850028
N -2.5429066 0.003547128 -0.553638592
C -1.82846872 1.159612376 -1.015153672
O -2.263989 2.26293548 -0.96021016
C -1.830284768 -1.157038584 -1.014693472
O -2.264444416 -2.260725168 -0.959191168
C -3.973158592 0.000446576 -0.397588464
24
Vibration 1
O 2.40150196 -0.0008645 -2.26923632
O 3.53934802 -0.00271284 0.2602977
S 2.1744385 0.00028574 -0.64739584
H -0.01721668 -1.27625992 -2.28829874
H -0.01253018 1.2792468 -2.2803404
H -4.27164738 -0.87214504 0.16007602
H -4.27145654 0.87368424 0.15942706
H -4.50272264 -3.9e-05 -1.33911778
Cl -0.3992326 1.55324988 2.32691108
Cl -0.3992586 -1.55307074 2.32727794
Cl 1.10936514 -2.8596451 -0.22973028
Cl 1.10976554 2.8588144 -0.22948328
C 0.31497856 0.67559648 1.12276502
C 0.31541822 -0.67741908 1.12294754
C 0.80401958 -1.252836 -0.05482386
C -0.47813974 -0.71289686 -1.46680118
C -0.4705779 0.71415682 -1.45764476
C 0.80700334 1.24732504 -0.05383846
N -2.5429417 0.00443664 -0.556894
C -1.8264467 1.16018084 -1.01433566
O -2.26412862 2.2628554 -0.96080972
C -1.82875134 -1.15698648 -1.01374832
O -2.26477966 -2.26009758 -0.95953
C -3.97304076 0.0005915 -0.39797498
24
Vibration 1
O 2.402240568 -0.001030016 -2.26909384
O 3.539001648 -0.002993016 0.260371488
S 2.175423536 0.000368576 -0.647659792
H -0.028592304 -1.271233808 -2.3048844
H -0.022954464 1.274728624 -2.295375576
H -4.27102416 -0.871934648 0.160104464
H -4.270761352 0.87383868 0.15933892
H -4.503509296 -1.976e-06 -1.338976392
Cl -0.398630544 1.553382792 2.3269376
Cl -0.39866164 -1.553285552 2.327330928
Cl 1.109306328 -2.859483432 -0.229456968
Cl 1.109679688 2.858450088 -0.229144968
C 0.313212744 0.670958912 1.124410144
C 0.313772888 -0.673223408 1.124626568
C 0.78925132 -1.249543256 -0.070340504
C -0.466418576 -0.719167176 -1.451600488
C -0.457329704 0.720621408 -1.440621728
C 0.792733864 1.242884032 -0.06917664
N -2.5429768 0.005326152 -0.560149408
C -1.82442468 1.160749304 -1.013517648
O -2.26426824 2.26277532 -0.96140928
C -1.827217912 -1.156934376 -1.012803168
O -2.265114904 -2.259469992 -0.959868832
C -3.972922928 0.000736424 -0.398361496
24
Vibration 1
O 2.402979176 -0.001195532 -2.26895136
O 3.538655276 -0.003273192 0.260445276
S 2.176408572 0.000451412 -0.647923744
H -0.039967928 -1.266207696 -2.32147006
H -0.033378748 1.270210448 -2.310410752
H -4.27040094 -0.871724256 0.160132908
H -4.270066164 0.87399312 0.15925078
H -4.504295952 3.5048e-05 -1.338835004
Cl -0.398028488 1.553515704 2.32696412
Cl -0.39806468 -1.553500364 2.327383916
Cl 1.109247516 -2.859321764 -0.229183656
Cl 1.109593836 2.858085776 -0.228806656
C 0.311446928 0.666321344 1.126055268
C 0.312127556 -0.669027736 1.126305596
C 0.77448306 -1.246250512 -0.085857148
C -0.454697412 -0.725437492 -1.436399796
C -0.444081508 0.727085996 -1.423598696
C 0.778464388 1.238443024 -0.08451482
N -2.5430119 0.006215664 -0.563404816
C -1.82240266 1.161317768 -1.012699636
O -2.26440786 2.26269524 -0.96200884
C -1.825684484 -1.156882272 -1.011858016
O -2.265450148 -2.258842404 -0.960207664
C -3.972805096 0.000881348 -0.398748012
24
Vibration 1
O 2.403717784 -0.001361048 -2.26880888
O 3.538308904 -0.003553368 0.260519064
S 2.177393608 0.000534248 -0.648187696
H -0.051343552 -1.261181584 -2.33805572
H -0.043803032 1.265692272 -2.325445928
H -4.26977772 -0.871513864 0.160161352
H -4.269370976 0.87414756 0.15916264
H -4.505082608 7.2072e-05 -1.338693616
Cl -0.397426432 1.553648616 2.32699064
Cl -0.39746772 -1.553715176 2.327436904
Cl 1.109188704 -2.859160096 -0.228910344
Cl 1.109507984 2.857721464 -0.228468344
C 0.309681112 0.661683776 1.127700392
C 0.310482224 -0.664832064 1.127984624
C 0.7597148 -1.242957768 -0.101373792
C -0.442976248 -0.731707808 -1.421199104
C -0.430833312 0.733550584 -1.406575664
C 0.764194912 1.234002016 -0.099853
N -2.543047 0.007105176 -0.566660224
C -1.82038064 1.161886232 -1.011881624
O -2.26454748 2.26261516 -0.9626084
C -1.824151056 -1.156830168 -1.010912864
O -2.265785392 -2.258214816 -0.960546496
C -3.972687264 0.001026272 -0.399134528
24
Vibration 1
O 2.404456392 -0.001526564 -2.2686664
O 3.537962532 -0.003833544 0.260592852
S 2.178378644 0.000617084 -0.648451648
H -0.062719176 -1.256155472 -2.35464138
H -0.054227316 1.261174096 -2.340481104
H -4.2691545 -0.871303472 0.160189796
H -4.268675788 0.874302 0.1590745
H -4.505869264 0.000109096 -1.338552228
Cl -0.396824376 1.553781528 2.32701716
Cl -0.39687076 -1.553929988 2.327489892
Cl 1.109129892 -2.858998428 -0.228637032
Cl 1.109422132 2.857357152 -0.228130032
C 0.307915296 0.657046208 1.129345516
C 0.308836892 -0.660636392 1.129663652
C 0.74494654 -1.239665024 -0.116890436
C -0.431255084 -0.737978124 -1.405998412
C -0.417585116 0.740015172 -1.389552632
C 0.749925436 1.229561008 -0.11519118
N -2.5430821 0.007994688 -0.569915632
C -1.81835862 1.162454696 -1.011063612
O -2.2646871 2.26253508 -0.96320796
C -1.822617628 -1.156778064 -1.009967712
O -2.266120636 -2.257587228 -0.960885328
C -3.972569432 0.001171196 -0.399521044
